Version 4
SHEET 1 880 680
WIRE -768 -176 -768 -256
WIRE -688 -176 -688 -256
WIRE -608 -176 -608 -256
WIRE -528 -176 -528 -256
WIRE -448 -176 -448 -256
WIRE -368 -176 -368 -240
WIRE -288 -176 -288 -240
WIRE -192 -176 -192 -240
WIRE -112 -176 -112 -240
WIRE -16 -176 -16 -240
WIRE -768 -64 -768 -96
WIRE -688 -64 -688 -96
WIRE -608 -64 -608 -96
WIRE -528 -64 -528 -96
WIRE -448 -64 -448 -96
WIRE -368 -64 -368 -96
WIRE -288 -64 -288 -96
WIRE -192 -64 -192 -96
WIRE -112 -64 -112 -96
WIRE -16 -64 -16 -96
WIRE 400 -48 208 -48
WIRE 208 64 208 32
WIRE 400 80 400 -48
WIRE 304 176 272 176
WIRE 400 176 400 160
WIRE 208 288 208 272
FLAG 400 176 0
FLAG 208 288 0
FLAG -16 -64 0
FLAG -112 -64 0
FLAG -192 -64 0
FLAG -288 -64 0
FLAG -368 -64 0
FLAG -448 -64 0
FLAG -528 -64 0
FLAG -608 -64 0
FLAG -688 -64 0
FLAG -768 -64 0
FLAG -16 -240 d0
IOPIN -16 -240 Out
FLAG -112 -240 d1
IOPIN -112 -240 Out
FLAG -192 -240 d2
IOPIN -192 -240 Out
FLAG -288 -240 d3
IOPIN -288 -240 Out
FLAG -368 -240 d4
IOPIN -368 -240 Out
FLAG -448 -256 d5
IOPIN -448 -256 Out
FLAG -528 -256 d6
IOPIN -528 -256 Out
FLAG -608 -256 d7
IOPIN -608 -256 Out
FLAG -688 -256 d8
IOPIN -688 -256 Out
FLAG -768 -256 d9
IOPIN -768 -256 Out
FLAG 304 176 out
IOPIN 304 176 Out
FLAG 144 96 d0
IOPIN 144 96 In
FLAG 144 112 d1
IOPIN 144 112 In
FLAG 144 128 d2
IOPIN 144 128 In
FLAG 144 144 d3
IOPIN 144 144 In
FLAG 144 160 d4
IOPIN 144 160 In
FLAG 144 176 d5
IOPIN 144 176 In
FLAG 144 192 d6
IOPIN 144 192 In
FLAG 144 208 d7
IOPIN 144 208 In
FLAG 144 224 d8
IOPIN 144 224 In
FLAG 144 240 d9
IOPIN 144 240 In
SYMBOL voltage 400 64 R0
WINDOW 123 0 0 Left 0
WINDOW 39 0 0 Left 0
SYMATTR InstName V1
SYMATTR Value 3.3
SYMBOL level9 208 160 R0
SYMATTR InstName X1
SYMBOL res 192 -64 R0
SYMATTR InstName R1
SYMATTR Value 5k
SYMBOL voltage -16 -192 R0
WINDOW 123 0 0 Left 0
WINDOW 39 0 0 Left 0
SYMATTR InstName V2
SYMATTR Value 1.8
SYMBOL voltage -112 -192 R0
WINDOW 123 0 0 Left 0
WINDOW 39 0 0 Left 0
SYMATTR InstName V3
SYMATTR Value 1.8
SYMBOL voltage -192 -192 R0
WINDOW 123 0 0 Left 0
WINDOW 39 0 0 Left 0
SYMATTR InstName V4
SYMATTR Value 1.8
SYMBOL voltage -288 -192 R0
WINDOW 123 0 0 Left 0
WINDOW 39 0 0 Left 0
SYMATTR InstName V5
SYMATTR Value 1.8
SYMBOL voltage -368 -192 R0
WINDOW 123 0 0 Left 0
WINDOW 39 0 0 Left 0
SYMATTR InstName V6
SYMATTR Value 1.8
SYMBOL voltage -448 -192 R0
WINDOW 123 0 0 Left 0
WINDOW 39 0 0 Left 0
SYMATTR InstName V7
SYMATTR Value 1.8
SYMBOL voltage -528 -192 R0
WINDOW 123 0 0 Left 0
WINDOW 39 0 0 Left 0
SYMATTR InstName V8
SYMATTR Value 1.8
SYMBOL voltage -608 -192 R0
WINDOW 123 0 0 Left 0
WINDOW 39 0 0 Left 0
SYMATTR InstName V9
SYMATTR Value 1.8
SYMBOL voltage -688 -192 R0
WINDOW 123 0 0 Left 0
WINDOW 39 0 0 Left 0
SYMATTR InstName V10
SYMATTR Value 1.8
SYMBOL voltage -768 -192 R0
WINDOW 123 0 0 Left 0
WINDOW 39 0 0 Left 0
SYMATTR InstName V11
SYMATTR Value 1.8
TEXT -216 88 Left 2 !.tran 100ms
